*Heading
** Job name: Job_TamL_vonM_2D Model name: CTS_2D
** Generated by: Abaqus/CAE 2022
*Preprint, echo=NO, model=NO, history=NO, contact=NO
**
** PARTS
**
*Part, name=L
*Node
      1,           0.,         250.
      2,         250.,         250.
      3,         500.,         250.
      4,         500.,         500.
      5,           0.,         500.
      6,           0.,           0.
      7,         250.,           0.
      8,   3.96825385,         250.
      9,    7.9365077,         250.
     10,   11.9047623,         250.
     11,   15.8730154,         250.
     12,   19.8412704,         250.
     13,   23.8095245,         250.
     14,   27.7777786,         250.
     15,   31.7460308,         250.
     16,   35.7142868,         250.
     17,   39.6825409,         250.
     18,    43.650795,         250.
     19,   47.6190491,         250.
     20,   51.5873032,         250.
** ... 2353 like lines cut
*Element, type=CPE4
   1,  297,   12,   13,  296
   2,  306,  132,  133,  304
   3,  127,  316,  317,  126
   4,  123,  323,  325,  122
   5,  120,  328,  330,  119
   6,  334,  609,  116,  117
   7,  114,    5,  115, 1324
   8,  244,   15,   16,  294
   9,  245,  287,  372,  352
  10,  759,  678,  677,  758
  11,  680, 1429,  600,  599
  12, 1440, 1408,  603,  691
  13, 1327, 1398, 1399, 1217
  14,  113, 1327, 1371,  112
  15, 1324, 1327,  113,  114
  16,  245,   23,   24,  287
  17,  280,   32,   33,  279
  18, 1064, 1012, 1014, 1011
  19, 1083, 1037,  222, 1034
  20, 1130,  979, 1084, 1164
** ... 2287 like lines cut
*Nset, nset=Set-1, generate
    1,  2373,     1
*Elset, elset=Set-1, generate
    1,  2307,     1
** Section: Section-1-ALL
*Solid Section, elset=Set-1, material=MORTOR
10.,
*End Part
**  
**
** ASSEMBLY
**
*Assembly, name=Assembly
**  
*Instance, name=L-1, part=L
*End Instance
**  
*Nset, nset=Bienduoi, instance=L-1
   6,   7, 163, 164, 165, 166, 167, 168, 169, 170, 171
*Elset, elset=Bienduoi, instance=L-1
 1413, 1481, 1483, 1490, 2136, 2167, 2249, 2251, 2256, 2257
*Nset, nset=Luc, instance=L-1
 3,
*Nset, nset=Set-3, instance=L-1
   6,   7, 163, 164, 165, 166, 167, 168, 169, 170, 171
*Elset, elset=Set-3, instance=L-1
 1413, 1481, 1483, 1490, 2136, 2167, 2249, 2251, 2256, 2257
*Nset, nset=Set-4, instance=L-1
 3,
*End Assembly
** 
** MATERIALS
** 
*Material, name=MORTOR
*Density
1.,
*Depvar
      3,
*User Material, constants=4, unsymm
25850.,   0.18,    10., 0.0001
** 
** BOUNDARY CONDITIONS
** 
** Name: BC-4 Type: Displacement/Rotation
*Boundary
Set-3, 1, 1
Set-3, 2, 2
** ----------------------------------------------------------------
** 
** STEP: Step-2
** 
*Step, name=Step-2, nlgeom=YES, inc=1000
*Static, stabilize=0.0002, allsdtol=0.05, continue=NO
0.001, 1., 1e-06, 0.01
** 
** BOUNDARY CONDITIONS
** 
** Name: BC-2 Type: Displacement/Rotation
*Boundary
Luc, 2, 2, 0.8
** 
** OUTPUT REQUESTS
** 
*Restart, write, frequency=0
** 
** FIELD OUTPUT: F-Output-1
** 
*Output, field
*Node Output
RF, U
*Element Output, directions=YES
E, S, SDV
*Output, history, frequency=0
*End Step
